%nproc=4
%mem=4GB
# pbe1pbe/def2tzvp sp nosymm

dummy

-1 1
  O    3.139931   -0.331705   -0.017824
  C    1.948465   -0.185881   -0.201652
  O    1.136168    0.523247    0.495429
  H    1.456702   -0.694318   -1.078354
  O   -1.136684    0.527445   -0.490753
  C   -1.948140   -0.187769    0.200058
  O   -3.139768   -0.331975    0.015933
  H   -1.455409   -0.703162    1.073306
  H   -0.001452    0.519360    0.001688

