%nproc=4
%mem=4GB
# pbe1pbe/def2tzvp sp nosymm

dummy

-1 1
  O    3.111844   -0.352510    0.000900
  C    1.926620   -0.178599   -0.221417
  O    1.111202    0.536770    0.464222
  H    1.458782   -0.675594   -1.105400
  O   -1.111718    0.540968   -0.460586
  C   -1.926295   -0.180487    0.219823
  O   -3.111681   -0.352780   -0.002791
  H   -1.457489   -0.684438    1.099312
  H   -0.000412    0.534964    0.001688

