%nproc=4
%mem=4GB
# pbe1pbe/def2tzvp sp nosymm

dummy

-1 1
  O    3.083757   -0.373315    0.019624
  C    1.904775   -0.171317   -0.241182
  O    1.086236    0.550293    0.433015
  H    1.460862   -0.656870   -1.132446
  O   -1.086752    0.554491   -0.430419
  C   -1.904450   -0.173205    0.239588
  O   -3.083594   -0.373585   -0.021515
  H   -1.459569   -0.665714    1.125318
  H    0.000628    0.550568    0.001688

