%nproc=4
%mem=4GB
# pbe1pbe/def2tzvp sp nosymm

dummy

-1 1
  O    3.130568   -0.338640   -0.011583
  C    1.941183   -0.183453   -0.208241
  O    1.127846    0.527755    0.485027
  H    1.457395   -0.688077   -1.087369
  O   -1.128362    0.531953   -0.480697
  C   -1.940858   -0.185341    0.206647
  O   -3.130405   -0.338910    0.009692
  H   -1.456102   -0.696921    1.081975
  H   -0.001105    0.524562    0.001688

